LTspice 24.1.7 for Windows
Circuit: C:\users\kou\Documents\Electronics\Electronics_2\Exercise_4\Schema_4-9.net
Start Time: Mon May 26 14:39:24 2025
solver = Normal
Maximum thread count: 4
tnom = 27
temp = 27
method = trap
Direct Newton iteration for .op point succeeded.
Total elapsed time: 0.146 seconds.

Files loaded:
C:\users\kou\Documents\Electronics\Electronics_2\Exercise_4\Schema_4-9.net
C:\users\kou\AppData\Local\LTspice\lib\cmp\standard.bjt
C:\users\kou\Documents\Electronics\Electronics_2\LM741\lm741.lib

