LTspice 24.1.7 for Windows
Circuit: C:\users\kou\Documents\Electronics\Schema_4-7.net
Start Time: Fri May 23 20:42:27 2025
solver = Normal
Maximum thread count: 4
tnom = 27
temp = 27
method = trap
Direct Newton iteration for .op point succeeded.
Total elapsed time: 0.395 seconds.

Files loaded:
C:\users\kou\Documents\Electronics\Schema_4-7.net
C:\users\kou\Documents\Electronics\LM741\lm741.lib

