LTspice 24.1.7 for Windows
Circuit: C:\users\kou\Documents\Electronics\Electronics_2\Exercise_4\Schema_4-7.net
Start Time: Sat May 24 17:15:09 2025
solver = Normal
Maximum thread count: 4
tnom = 27
temp = 27
method = trap
Direct Newton iteration for .op point succeeded.
Total elapsed time: 0.087 seconds.

Files loaded:
C:\users\kou\Documents\Electronics\Electronics_2\Exercise_4\Schema_4-7.net
C:\users\kou\Documents\Electronics\LM741\lm741.lib

